Version 4.1
SHEET 1 880 680
WIRE -528 -64 -528 -128
WIRE 224 0 192 0
WIRE 320 0 288 0
WIRE -16 48 -272 48
WIRE -528 64 -528 16
WIRE -16 80 -16 48
WIRE 320 96 320 0
WIRE 320 96 224 96
WIRE 160 112 160 64
WIRE 192 112 192 0
WIRE 224 112 224 96
WIRE 128 144 96 144
WIRE 96 160 96 144
WIRE 400 176 256 176
WIRE 480 176 400 176
WIRE 656 176 544 176
WIRE -272 208 -272 48
WIRE -16 208 -16 160
WIRE 32 208 -16 208
WIRE 128 208 32 208
WIRE 400 224 400 176
WIRE 656 240 656 176
WIRE -272 256 -272 208
WIRE -16 256 -16 208
WIRE 160 272 160 240
WIRE 208 288 208 240
WIRE 400 320 400 288
WIRE 656 368 656 320
WIRE -16 384 -16 336
WIRE 208 384 208 352
WIRE -272 400 -272 336
WIRE 400 416 400 400
FLAG -528 -128 VBUS
FLAG -528 64 0
FLAG -272 400 0
FLAG 96 160 0
FLAG 160 272 0
FLAG 656 176 OUT
FLAG 160 64 VBUS
FLAG 400 416 0
FLAG -272 208 IN
FLAG -16 384 0
FLAG 32 208 IN2
FLAG 208 384 0
FLAG 656 368 0
SYMBOL LM386 176 112 R0
SYMATTR InstName U1
SYMBOL voltage -528 -80 R0
WINDOW 123 0 0 Left 0
WINDOW 39 0 0 Left 0
SYMATTR InstName V1
SYMATTR Value 9
SYMBOL voltage -272 240 R0
WINDOW 123 0 0 Left 0
WINDOW 39 0 0 Left 0
SYMATTR InstName V2
SYMATTR Value SINE(0.015 30m 1k)
SYMBOL cap 544 160 R90
WINDOW 0 0 32 VBottom 2
WINDOW 3 32 32 VTop 2
SYMATTR InstName C4
SYMATTR Value 470µ
SYMBOL res 384 304 R0
SYMATTR InstName R1
SYMATTR Value 10
SYMBOL res -32 64 R0
SYMATTR InstName R2
SYMATTR Value 5k
SYMBOL res -32 240 R0
SYMATTR InstName R3
SYMATTR Value 5k
SYMBOL cap 288 -16 R90
WINDOW 0 0 32 VBottom 2
WINDOW 3 32 32 VTop 2
SYMATTR InstName C1
SYMATTR Value 10µ
SYMBOL cap 192 288 R0
SYMATTR InstName C2
SYMATTR Value 100p
SYMBOL cap 384 224 R0
SYMATTR InstName C3
SYMATTR Value 0.047µ
SYMBOL res 640 224 R0
SYMATTR InstName R4
SYMATTR Value 8k
TEXT 240 256 Left 2 !.tran 50m
